FoamFile
{
    version     2.0;
    format      ascii;
    class       polyBoundaryMesh;
    location    "constant/polyMesh";
    object      boundary;
}

6         
(
    Back
    {
        type symmetry;
        nFaces 8000;
        startFace 15820;
    }
    BottomWall
    {
        type wall;
        nFaces 100;
        startFace 23820;
    }
    Front
    {
        type symmetry;
        nFaces 8000;
        startFace 23920;
    }
    Inflow
    {
        type patch;
        nFaces 80;
        startFace 31920;
    }
    Outflow
    {
        type patch;
        nFaces 80;
        startFace 32000;
    }
    UpperWall
    {
        type wall;
        nFaces 100;
        startFace 32080;
    }
)
